LTspice 24.0.9 for Windows
Circuit: * C:\Users\240844\Documents\NAO\1\VAchar.asc
Start Time: Mon Feb  5 14:25:49 2024
Error on line 5 : r1 nc_01 nc_02 r
	 Unable to find definition of model "r"
Error on line 6 : r2 nc_03 nc_04 r
	 Unable to find definition of model "r"
solver = Normal
Maximum thread count: 4
tnom = 27
temp = 27
method = modified trap
WARNING: Node NC_02 is floating.
WARNING: Node NC_04 is floating.

WARNING: Less than two connections to node nc_01.  This node is used by r1.
WARNING: Less than two connections to node nc_02.  This node is used by r1.
WARNING: Less than two connections to node nc_03.  This node is used by r2.
WARNING: Less than two connections to node nc_04.  This node is used by r2.
Warning: Pd = 0 is less than W.
Warning: Ps = 0 is less than W.
Fatal Error: Missing resistance value for "r1"
